forest_3.fds
Generated by PyroSim - Version 2010.1.0928
03.10.2010 19:24:18

&HEAD CHID='forest_3'/
&TIME T_END=180.00/
&DUMP RENDER_FILE='forest_3.ge1', COLUMN_DUMP_LIMIT=.FALSE., DT_RESTART=300.00/
&MISC TMPA=40.00, V0=10.00/

&MESH ID='сетка', IJK=100,100,18, XB=0.00,50.00,0.00,50.00,-1.10,7.50/

&MATL ID='SPRUCE_CHAR',
      SPECIFIC_HEAT_RAMP='SPRUCE_CHAR_SPECIFIC_HEAT_RAMP',
      CONDUCTIVITY_RAMP='SPRUCE_CHAR_CONDUCTIVITY_RAMP',
      DENSITY=120.00,
      EMISSIVITY=1.00/
&RAMP ID='SPRUCE_CHAR_CONDUCTIVITY_RAMP', T=20.00, F=0.0770/
&RAMP ID='SPRUCE_CHAR_CONDUCTIVITY_RAMP', T=900.00, F=0.1600/
&RAMP ID='SPRUCE_CHAR_SPECIFIC_HEAT_RAMP', T=20.00, F=0.68/
&RAMP ID='SPRUCE_CHAR_SPECIFIC_HEAT_RAMP', T=400.00, F=1.50/
&RAMP ID='SPRUCE_CHAR_SPECIFIC_HEAT_RAMP', T=900.00, F=1.80/
&MATL ID='SPRUCE_VIRGIN',
      SPECIFIC_HEAT_RAMP='SPRUCE_VIRGIN_SPECIFIC_HEAT_RAMP',
      CONDUCTIVITY_RAMP='SPRUCE_VIRGIN_CONDUCTIVITY_RAMP',
      DENSITY=450.00,
      EMISSIVITY=1.00,
      N_REACTIONS=1,
      HEAT_OF_REACTION=500.00,
      NU_FUEL=0.50,
      NU_RESIDUE=0.50,
      RESIDUE='SPRUCE_CHAR',
      N_T=1.00,
      THRESHOLD_TEMPERATURE=360.00,
      N_S=1.00,
      REFERENCE_TEMPERATURE=100.00/
&RAMP ID='SPRUCE_VIRGIN_SPECIFIC_HEAT_RAMP', T=20.00, F=1.20/
&RAMP ID='SPRUCE_VIRGIN_SPECIFIC_HEAT_RAMP', T=500.00, F=3.00/
&RAMP ID='SPRUCE_VIRGIN_CONDUCTIVITY_RAMP', T=20.00, F=0.1300/
&RAMP ID='SPRUCE_VIRGIN_CONDUCTIVITY_RAMP', T=500.00, F=0.2900/
&MATL ID='Вода',
      SPECIFIC_HEAT=4.19,
      CONDUCTIVITY=0.60,
      DENSITY=1.0000000E003,
      EMISSIVITY=1.00,
      N_REACTIONS=1,
      HEAT_OF_REACTION=2.2600000E003,
      NU_WATER=1.00,
      N_T=1.00,
      THRESHOLD_TEMPERATURE=100.00,
      N_S=1.00,
      A=1.0000000E020,
      E=1.6200000E005/
&MATL ID='YELLOW PINE',
      FYI='Quintiere, Fire Behavior - NIST NRC Validation',
      SPECIFIC_HEAT=2.85,
      CONDUCTIVITY=0.1400,
      DENSITY=640.00/

&SURF ID='трава',
      RGB=102,255,51,
      TEXTURE_MAP='psm_grass_big.jpg',
      TEXTURE_WIDTH=0.76,
      TEXTURE_HEIGHT=0.51,
      SURFACE_DENSITY=45.00,
      BACKING='EXPOSED',
      MATL_ID(1,1:2)='SPRUCE_VIRGIN','Вода',
      MATL_MASS_FRACTION(1,1:2)=0.99,0.0100,
      THICKNESS(1)=0.0280/
&SURF ID='сосна',
      RGB=255,153,0,
      TEXTURE_MAP='psm_spruce.jpg',
      TEXTURE_WIDTH=0.67,
      TEXTURE_HEIGHT=2.44,
      MATL_ID(1,1)='YELLOW PINE',
      MATL_MASS_FRACTION(1,1)=1.00,
      THICKNESS(1)=0.0100/
&SURF ID='кроны дерева',
      RGB=102,255,51,
      TEXTURE_MAP='psm_grass_big.jpg',
      TEXTURE_WIDTH=0.76,
      TEXTURE_HEIGHT=0.51,
      SURFACE_DENSITY=45.00,
      BACKING='EXPOSED',
      MATL_ID(1,1:2)='SPRUCE_VIRGIN','Вода',
      MATL_MASS_FRACTION(1,1:2)=0.99,0.0100,
      THICKNESS(1)=0.0280/
&SURF ID='сосна03',
      RGB=255,153,0,
      TEXTURE_MAP='psm_spruce.jpg',
      TEXTURE_WIDTH=0.67,
      TEXTURE_HEIGHT=2.44,
      MATL_ID(1,1)='YELLOW PINE',
      MATL_MASS_FRACTION(1,1)=1.00,
      THICKNESS(1)=0.0100/
&SURF ID='кроны дерева03',
      RGB=102,255,51,
      TEXTURE_MAP='psm_grass_big.jpg',
      TEXTURE_WIDTH=0.76,
      TEXTURE_HEIGHT=0.51,
      SURFACE_DENSITY=45.00,
      BACKING='EXPOSED',
      MATL_ID(1,1:2)='SPRUCE_VIRGIN','Вода',
      MATL_MASS_FRACTION(1,1:2)=0.99,0.0100,
      THICKNESS(1)=0.0280/
&SURF ID='сосна04',
      RGB=255,153,0,
      TEXTURE_MAP='psm_spruce.jpg',
      TEXTURE_WIDTH=0.67,
      TEXTURE_HEIGHT=2.44,
      MATL_ID(1,1)='YELLOW PINE',
      MATL_MASS_FRACTION(1,1)=1.00,
      THICKNESS(1)=0.0100/
&SURF ID='кроны дерева04',
      RGB=102,255,51,
      TEXTURE_MAP='psm_grass_big.jpg',
      TEXTURE_WIDTH=0.76,
      TEXTURE_HEIGHT=0.51,
      SURFACE_DENSITY=45.00,
      BACKING='EXPOSED',
      MATL_ID(1,1:2)='SPRUCE_VIRGIN','Вода',
      MATL_MASS_FRACTION(1,1:2)=0.99,0.0100,
      THICKNESS(1)=0.0280/
&SURF ID='сосна05',
      RGB=255,153,0,
      TEXTURE_MAP='psm_spruce.jpg',
      TEXTURE_WIDTH=0.67,
      TEXTURE_HEIGHT=2.44,
      MATL_ID(1,1)='YELLOW PINE',
      MATL_MASS_FRACTION(1,1)=1.00,
      THICKNESS(1)=0.0100/
&SURF ID='кроны дерева05',
      RGB=102,255,51,
      TEXTURE_MAP='psm_grass_big.jpg',
      TEXTURE_WIDTH=0.76,
      TEXTURE_HEIGHT=0.51,
      SURFACE_DENSITY=45.00,
      BACKING='EXPOSED',
      MATL_ID(1,1:2)='SPRUCE_VIRGIN','Вода',
      MATL_MASS_FRACTION(1,1:2)=0.99,0.0100,
      THICKNESS(1)=0.0280/
&SURF ID='сосна02',
      RGB=255,153,0,
      TEXTURE_MAP='psm_spruce.jpg',
      TEXTURE_WIDTH=0.67,
      TEXTURE_HEIGHT=2.44,
      MATL_ID(1,1)='YELLOW PINE',
      MATL_MASS_FRACTION(1,1)=1.00,
      THICKNESS(1)=0.0100/
&SURF ID='кроны дерева02',
      RGB=102,255,51,
      TEXTURE_MAP='psm_grass_big.jpg',
      TEXTURE_WIDTH=0.76,
      TEXTURE_HEIGHT=0.51,
      SURFACE_DENSITY=45.00,
      BACKING='EXPOSED',
      MATL_ID(1,1:2)='SPRUCE_VIRGIN','Вода',
      MATL_MASS_FRACTION(1,1:2)=0.99,0.0100,
      THICKNESS(1)=0.0280/
&SURF ID='сосна0202',
      RGB=255,153,0,
      TEXTURE_MAP='psm_spruce.jpg',
      TEXTURE_WIDTH=0.67,
      TEXTURE_HEIGHT=2.44,
      MATL_ID(1,1)='YELLOW PINE',
      MATL_MASS_FRACTION(1,1)=1.00,
      THICKNESS(1)=0.0100/
&SURF ID='кроны дерева0202',
      RGB=102,255,51,
      TEXTURE_MAP='psm_grass_big.jpg',
      TEXTURE_WIDTH=0.76,
      TEXTURE_HEIGHT=0.51,
      SURFACE_DENSITY=45.00,
      BACKING='EXPOSED',
      MATL_ID(1,1:2)='SPRUCE_VIRGIN','Вода',
      MATL_MASS_FRACTION(1,1:2)=0.99,0.0100,
      THICKNESS(1)=0.0280/
&SURF ID='сосна020202',
      RGB=255,153,0,
      TEXTURE_MAP='psm_spruce.jpg',
      TEXTURE_WIDTH=0.67,
      TEXTURE_HEIGHT=2.44,
      MATL_ID(1,1)='YELLOW PINE',
      MATL_MASS_FRACTION(1,1)=1.00,
      THICKNESS(1)=0.0100/
&SURF ID='кроны дерева020202',
      RGB=102,255,51,
      TEXTURE_MAP='psm_grass_big.jpg',
      TEXTURE_WIDTH=0.76,
      TEXTURE_HEIGHT=0.51,
      SURFACE_DENSITY=45.00,
      BACKING='EXPOSED',
      MATL_ID(1,1:2)='SPRUCE_VIRGIN','Вода',
      MATL_MASS_FRACTION(1,1:2)=0.99,0.0100,
      THICKNESS(1)=0.0280/
&SURF ID='сосна020203',
      RGB=255,153,0,
      TEXTURE_MAP='psm_spruce.jpg',
      TEXTURE_WIDTH=0.67,
      TEXTURE_HEIGHT=2.44,
      MATL_ID(1,1)='YELLOW PINE',
      MATL_MASS_FRACTION(1,1)=1.00,
      THICKNESS(1)=0.0100/
&SURF ID='кроны дерева020203',
      RGB=102,255,51,
      TEXTURE_MAP='psm_grass_big.jpg',
      TEXTURE_WIDTH=0.76,
      TEXTURE_HEIGHT=0.51,
      SURFACE_DENSITY=45.00,
      BACKING='EXPOSED',
      MATL_ID(1,1:2)='SPRUCE_VIRGIN','Вода',
      MATL_MASS_FRACTION(1,1:2)=0.99,0.0100,
      THICKNESS(1)=0.0280/
&SURF ID='сосна020204',
      RGB=255,153,0,
      TEXTURE_MAP='psm_spruce.jpg',
      TEXTURE_WIDTH=0.67,
      TEXTURE_HEIGHT=2.44,
      MATL_ID(1,1)='YELLOW PINE',
      MATL_MASS_FRACTION(1,1)=1.00,
      THICKNESS(1)=0.0100/
&SURF ID='кроны дерева020204',
      RGB=102,255,51,
      TEXTURE_MAP='psm_grass_big.jpg',
      TEXTURE_WIDTH=0.76,
      TEXTURE_HEIGHT=0.51,
      SURFACE_DENSITY=45.00,
      BACKING='EXPOSED',
      MATL_ID(1,1:2)='SPRUCE_VIRGIN','Вода',
      MATL_MASS_FRACTION(1,1:2)=0.99,0.0100,
      THICKNESS(1)=0.0280/
&SURF ID='сосна06',
      RGB=255,153,0,
      TEXTURE_MAP='psm_spruce.jpg',
      TEXTURE_WIDTH=0.67,
      TEXTURE_HEIGHT=2.44,
      MATL_ID(1,1)='YELLOW PINE',
      MATL_MASS_FRACTION(1,1)=1.00,
      THICKNESS(1)=0.0100/
&SURF ID='кроны дерева06',
      RGB=102,255,51,
      TEXTURE_MAP='psm_grass_big.jpg',
      TEXTURE_WIDTH=0.76,
      TEXTURE_HEIGHT=0.51,
      SURFACE_DENSITY=45.00,
      BACKING='EXPOSED',
      MATL_ID(1,1:2)='SPRUCE_VIRGIN','Вода',
      MATL_MASS_FRACTION(1,1:2)=0.99,0.0100,
      THICKNESS(1)=0.0280/
&SURF ID='сосна0302',
      RGB=255,153,0,
      TEXTURE_MAP='psm_spruce.jpg',
      TEXTURE_WIDTH=0.67,
      TEXTURE_HEIGHT=2.44,
      MATL_ID(1,1)='YELLOW PINE',
      MATL_MASS_FRACTION(1,1)=1.00,
      THICKNESS(1)=0.0100/
&SURF ID='кроны дерева0302',
      RGB=102,255,51,
      TEXTURE_MAP='psm_grass_big.jpg',
      TEXTURE_WIDTH=0.76,
      TEXTURE_HEIGHT=0.51,
      SURFACE_DENSITY=45.00,
      BACKING='EXPOSED',
      MATL_ID(1,1:2)='SPRUCE_VIRGIN','Вода',
      MATL_MASS_FRACTION(1,1:2)=0.99,0.0100,
      THICKNESS(1)=0.0280/
&SURF ID='сосна0402',
      RGB=255,153,0,
      TEXTURE_MAP='psm_spruce.jpg',
      TEXTURE_WIDTH=0.67,
      TEXTURE_HEIGHT=2.44,
      MATL_ID(1,1)='YELLOW PINE',
      MATL_MASS_FRACTION(1,1)=1.00,
      THICKNESS(1)=0.0100/
&SURF ID='кроны дерева0402',
      RGB=102,255,51,
      TEXTURE_MAP='psm_grass_big.jpg',
      TEXTURE_WIDTH=0.76,
      TEXTURE_HEIGHT=0.51,
      SURFACE_DENSITY=45.00,
      BACKING='EXPOSED',
      MATL_ID(1,1:2)='SPRUCE_VIRGIN','Вода',
      MATL_MASS_FRACTION(1,1:2)=0.99,0.0100,
      THICKNESS(1)=0.0280/
&SURF ID='сосна0502',
      RGB=255,153,0,
      TEXTURE_MAP='psm_spruce.jpg',
      TEXTURE_WIDTH=0.67,
      TEXTURE_HEIGHT=2.44,
      MATL_ID(1,1)='YELLOW PINE',
      MATL_MASS_FRACTION(1,1)=1.00,
      THICKNESS(1)=0.0100/
&SURF ID='кроны дерева0502',
      RGB=102,255,51,
      TEXTURE_MAP='psm_grass_big.jpg',
      TEXTURE_WIDTH=0.76,
      TEXTURE_HEIGHT=0.51,
      SURFACE_DENSITY=45.00,
      BACKING='EXPOSED',
      MATL_ID(1,1:2)='SPRUCE_VIRGIN','Вода',
      MATL_MASS_FRACTION(1,1:2)=0.99,0.0100,
      THICKNESS(1)=0.0280/
&SURF ID='сосна0605',
      RGB=255,153,0,
      TEXTURE_MAP='psm_spruce.jpg',
      TEXTURE_WIDTH=0.67,
      TEXTURE_HEIGHT=2.44,
      MATL_ID(1,1)='YELLOW PINE',
      MATL_MASS_FRACTION(1,1)=1.00,
      THICKNESS(1)=0.0100/
&SURF ID='кроны дерева0605',
      RGB=102,255,51,
      TEXTURE_MAP='psm_grass_big.jpg',
      TEXTURE_WIDTH=0.76,
      TEXTURE_HEIGHT=0.51,
      SURFACE_DENSITY=45.00,
      BACKING='EXPOSED',
      MATL_ID(1,1:2)='SPRUCE_VIRGIN','Вода',
      MATL_MASS_FRACTION(1,1:2)=0.99,0.0100,
      THICKNESS(1)=0.0280/
&SURF ID='сосна030205',
      RGB=255,153,0,
      TEXTURE_MAP='psm_spruce.jpg',
      TEXTURE_WIDTH=0.67,
      TEXTURE_HEIGHT=2.44,
      MATL_ID(1,1)='YELLOW PINE',
      MATL_MASS_FRACTION(1,1)=1.00,
      THICKNESS(1)=0.0100/
&SURF ID='кроны дерева030205',
      RGB=102,255,51,
      TEXTURE_MAP='psm_grass_big.jpg',
      TEXTURE_WIDTH=0.76,
      TEXTURE_HEIGHT=0.51,
      SURFACE_DENSITY=45.00,
      BACKING='EXPOSED',
      MATL_ID(1,1:2)='SPRUCE_VIRGIN','Вода',
      MATL_MASS_FRACTION(1,1:2)=0.99,0.0100,
      THICKNESS(1)=0.0280/
&SURF ID='сосна040205',
      RGB=255,153,0,
      TEXTURE_MAP='psm_spruce.jpg',
      TEXTURE_WIDTH=0.67,
      TEXTURE_HEIGHT=2.44,
      MATL_ID(1,1)='YELLOW PINE',
      MATL_MASS_FRACTION(1,1)=1.00,
      THICKNESS(1)=0.0100/
&SURF ID='кроны дерева040205',
      RGB=102,255,51,
      TEXTURE_MAP='psm_grass_big.jpg',
      TEXTURE_WIDTH=0.76,
      TEXTURE_HEIGHT=0.51,
      SURFACE_DENSITY=45.00,
      BACKING='EXPOSED',
      MATL_ID(1,1:2)='SPRUCE_VIRGIN','Вода',
      MATL_MASS_FRACTION(1,1:2)=0.99,0.0100,
      THICKNESS(1)=0.0280/
&SURF ID='сосна050205',
      RGB=255,153,0,
      TEXTURE_MAP='psm_spruce.jpg',
      TEXTURE_WIDTH=0.67,
      TEXTURE_HEIGHT=2.44,
      MATL_ID(1,1)='YELLOW PINE',
      MATL_MASS_FRACTION(1,1)=1.00,
      THICKNESS(1)=0.0100/
&SURF ID='кроны дерева050205',
      RGB=102,255,51,
      TEXTURE_MAP='psm_grass_big.jpg',
      TEXTURE_WIDTH=0.76,
      TEXTURE_HEIGHT=0.51,
      SURFACE_DENSITY=45.00,
      BACKING='EXPOSED',
      MATL_ID(1,1:2)='SPRUCE_VIRGIN','Вода',
      MATL_MASS_FRACTION(1,1:2)=0.99,0.0100,
      THICKNESS(1)=0.0280/
&SURF ID='сосна0203',
      RGB=255,153,0,
      TEXTURE_MAP='psm_spruce.jpg',
      TEXTURE_WIDTH=0.67,
      TEXTURE_HEIGHT=2.44,
      MATL_ID(1,1)='YELLOW PINE',
      MATL_MASS_FRACTION(1,1)=1.00,
      THICKNESS(1)=0.0100/
&SURF ID='кроны дерева0203',
      RGB=102,255,51,
      TEXTURE_MAP='psm_grass_big.jpg',
      TEXTURE_WIDTH=0.76,
      TEXTURE_HEIGHT=0.51,
      SURFACE_DENSITY=45.00,
      BACKING='EXPOSED',
      MATL_ID(1,1:2)='SPRUCE_VIRGIN','Вода',
      MATL_MASS_FRACTION(1,1:2)=0.99,0.0100,
      THICKNESS(1)=0.0280/
&SURF ID='сосна020205',
      RGB=255,153,0,
      TEXTURE_MAP='psm_spruce.jpg',
      TEXTURE_WIDTH=0.67,
      TEXTURE_HEIGHT=2.44,
      MATL_ID(1,1)='YELLOW PINE',
      MATL_MASS_FRACTION(1,1)=1.00,
      THICKNESS(1)=0.0100/
&SURF ID='кроны дерева020205',
      RGB=102,255,51,
      TEXTURE_MAP='psm_grass_big.jpg',
      TEXTURE_WIDTH=0.76,
      TEXTURE_HEIGHT=0.51,
      SURFACE_DENSITY=45.00,
      BACKING='EXPOSED',
      MATL_ID(1,1:2)='SPRUCE_VIRGIN','Вода',
      MATL_MASS_FRACTION(1,1:2)=0.99,0.0100,
      THICKNESS(1)=0.0280/
&SURF ID='сосна02020202',
      RGB=255,153,0,
      TEXTURE_MAP='psm_spruce.jpg',
      TEXTURE_WIDTH=0.67,
      TEXTURE_HEIGHT=2.44,
      MATL_ID(1,1)='YELLOW PINE',
      MATL_MASS_FRACTION(1,1)=1.00,
      THICKNESS(1)=0.0100/
&SURF ID='кроны дерева02020202',
      RGB=102,255,51,
      TEXTURE_MAP='psm_grass_big.jpg',
      TEXTURE_WIDTH=0.76,
      TEXTURE_HEIGHT=0.51,
      SURFACE_DENSITY=45.00,
      BACKING='EXPOSED',
      MATL_ID(1,1:2)='SPRUCE_VIRGIN','Вода',
      MATL_MASS_FRACTION(1,1:2)=0.99,0.0100,
      THICKNESS(1)=0.0280/
&SURF ID='сосна02020302',
      RGB=255,153,0,
      TEXTURE_MAP='psm_spruce.jpg',
      TEXTURE_WIDTH=0.67,
      TEXTURE_HEIGHT=2.44,
      MATL_ID(1,1)='YELLOW PINE',
      MATL_MASS_FRACTION(1,1)=1.00,
      THICKNESS(1)=0.0100/
&SURF ID='кроны дерева02020302',
      RGB=102,255,51,
      TEXTURE_MAP='psm_grass_big.jpg',
      TEXTURE_WIDTH=0.76,
      TEXTURE_HEIGHT=0.51,
      SURFACE_DENSITY=45.00,
      BACKING='EXPOSED',
      MATL_ID(1,1:2)='SPRUCE_VIRGIN','Вода',
      MATL_MASS_FRACTION(1,1:2)=0.99,0.0100,
      THICKNESS(1)=0.0280/
&SURF ID='сосна02020402',
      RGB=255,153,0,
      TEXTURE_MAP='psm_spruce.jpg',
      TEXTURE_WIDTH=0.67,
      TEXTURE_HEIGHT=2.44,
      MATL_ID(1,1)='YELLOW PINE',
      MATL_MASS_FRACTION(1,1)=1.00,
      THICKNESS(1)=0.0100/
&SURF ID='кроны дерева02020402',
      RGB=102,255,51,
      TEXTURE_MAP='psm_grass_big.jpg',
      TEXTURE_WIDTH=0.76,
      TEXTURE_HEIGHT=0.51,
      SURFACE_DENSITY=45.00,
      BACKING='EXPOSED',
      MATL_ID(1,1:2)='SPRUCE_VIRGIN','Вода',
      MATL_MASS_FRACTION(1,1:2)=0.99,0.0100,
      THICKNESS(1)=0.0280/
&SURF ID='сосна07',
      RGB=255,153,0,
      TEXTURE_MAP='psm_spruce.jpg',
      TEXTURE_WIDTH=0.67,
      TEXTURE_HEIGHT=2.44,
      MATL_ID(1,1)='YELLOW PINE',
      MATL_MASS_FRACTION(1,1)=1.00,
      THICKNESS(1)=0.0100/
&SURF ID='кроны дерева07',
      RGB=102,255,51,
      TEXTURE_MAP='psm_grass_big.jpg',
      TEXTURE_WIDTH=0.76,
      TEXTURE_HEIGHT=0.51,
      SURFACE_DENSITY=45.00,
      BACKING='EXPOSED',
      MATL_ID(1,1:2)='SPRUCE_VIRGIN','Вода',
      MATL_MASS_FRACTION(1,1:2)=0.99,0.0100,
      THICKNESS(1)=0.0280/
&SURF ID='сосна0303',
      RGB=255,153,0,
      TEXTURE_MAP='psm_spruce.jpg',
      TEXTURE_WIDTH=0.67,
      TEXTURE_HEIGHT=2.44,
      MATL_ID(1,1)='YELLOW PINE',
      MATL_MASS_FRACTION(1,1)=1.00,
      THICKNESS(1)=0.0100/
&SURF ID='кроны дерева0303',
      RGB=102,255,51,
      TEXTURE_MAP='psm_grass_big.jpg',
      TEXTURE_WIDTH=0.76,
      TEXTURE_HEIGHT=0.51,
      SURFACE_DENSITY=45.00,
      BACKING='EXPOSED',
      MATL_ID(1,1:2)='SPRUCE_VIRGIN','Вода',
      MATL_MASS_FRACTION(1,1:2)=0.99,0.0100,
      THICKNESS(1)=0.0280/
&SURF ID='сосна0403',
      RGB=255,153,0,
      TEXTURE_MAP='psm_spruce.jpg',
      TEXTURE_WIDTH=0.67,
      TEXTURE_HEIGHT=2.44,
      MATL_ID(1,1)='YELLOW PINE',
      MATL_MASS_FRACTION(1,1)=1.00,
      THICKNESS(1)=0.0100/
&SURF ID='кроны дерева0403',
      RGB=102,255,51,
      TEXTURE_MAP='psm_grass_big.jpg',
      TEXTURE_WIDTH=0.76,
      TEXTURE_HEIGHT=0.51,
      SURFACE_DENSITY=45.00,
      BACKING='EXPOSED',
      MATL_ID(1,1:2)='SPRUCE_VIRGIN','Вода',
      MATL_MASS_FRACTION(1,1:2)=0.99,0.0100,
      THICKNESS(1)=0.0280/
&SURF ID='сосна0503',
      RGB=255,153,0,
      TEXTURE_MAP='psm_spruce.jpg',
      TEXTURE_WIDTH=0.67,
      TEXTURE_HEIGHT=2.44,
      MATL_ID(1,1)='YELLOW PINE',
      MATL_MASS_FRACTION(1,1)=1.00,
      THICKNESS(1)=0.0100/
&SURF ID='кроны дерева0503',
      RGB=102,255,51,
      TEXTURE_MAP='psm_grass_big.jpg',
      TEXTURE_WIDTH=0.76,
      TEXTURE_HEIGHT=0.51,
      SURFACE_DENSITY=45.00,
      BACKING='EXPOSED',
      MATL_ID(1,1:2)='SPRUCE_VIRGIN','Вода',
      MATL_MASS_FRACTION(1,1:2)=0.99,0.0100,
      THICKNESS(1)=0.0280/
&SURF ID='сосна0204',
      RGB=255,153,0,
      TEXTURE_MAP='psm_spruce.jpg',
      TEXTURE_WIDTH=0.67,
      TEXTURE_HEIGHT=2.44,
      MATL_ID(1,1)='YELLOW PINE',
      MATL_MASS_FRACTION(1,1)=1.00,
      THICKNESS(1)=0.0100/
&SURF ID='кроны дерева0204',
      RGB=102,255,51,
      TEXTURE_MAP='psm_grass_big.jpg',
      TEXTURE_WIDTH=0.76,
      TEXTURE_HEIGHT=0.51,
      SURFACE_DENSITY=45.00,
      BACKING='EXPOSED',
      MATL_ID(1,1:2)='SPRUCE_VIRGIN','Вода',
      MATL_MASS_FRACTION(1,1:2)=0.99,0.0100,
      THICKNESS(1)=0.0280/
&SURF ID='сосна020206',
      RGB=255,153,0,
      TEXTURE_MAP='psm_spruce.jpg',
      TEXTURE_WIDTH=0.67,
      TEXTURE_HEIGHT=2.44,
      MATL_ID(1,1)='YELLOW PINE',
      MATL_MASS_FRACTION(1,1)=1.00,
      THICKNESS(1)=0.0100/
&SURF ID='кроны дерева020206',
      RGB=102,255,51,
      TEXTURE_MAP='psm_grass_big.jpg',
      TEXTURE_WIDTH=0.76,
      TEXTURE_HEIGHT=0.51,
      SURFACE_DENSITY=45.00,
      BACKING='EXPOSED',
      MATL_ID(1,1:2)='SPRUCE_VIRGIN','Вода',
      MATL_MASS_FRACTION(1,1:2)=0.99,0.0100,
      THICKNESS(1)=0.0280/
&SURF ID='сосна02020203',
      RGB=255,153,0,
      TEXTURE_MAP='psm_spruce.jpg',
      TEXTURE_WIDTH=0.67,
      TEXTURE_HEIGHT=2.44,
      MATL_ID(1,1)='YELLOW PINE',
      MATL_MASS_FRACTION(1,1)=1.00,
      THICKNESS(1)=0.0100/
&SURF ID='кроны дерева02020203',
      RGB=102,255,51,
      TEXTURE_MAP='psm_grass_big.jpg',
      TEXTURE_WIDTH=0.76,
      TEXTURE_HEIGHT=0.51,
      SURFACE_DENSITY=45.00,
      BACKING='EXPOSED',
      MATL_ID(1,1:2)='SPRUCE_VIRGIN','Вода',
      MATL_MASS_FRACTION(1,1:2)=0.99,0.0100,
      THICKNESS(1)=0.0280/
&SURF ID='сосна02020303',
      RGB=255,153,0,
      TEXTURE_MAP='psm_spruce.jpg',
      TEXTURE_WIDTH=0.67,
      TEXTURE_HEIGHT=2.44,
      MATL_ID(1,1)='YELLOW PINE',
      MATL_MASS_FRACTION(1,1)=1.00,
      THICKNESS(1)=0.0100/
&SURF ID='кроны дерева02020303',
      RGB=102,255,51,
      TEXTURE_MAP='psm_grass_big.jpg',
      TEXTURE_WIDTH=0.76,
      TEXTURE_HEIGHT=0.51,
      SURFACE_DENSITY=45.00,
      BACKING='EXPOSED',
      MATL_ID(1,1:2)='SPRUCE_VIRGIN','Вода',
      MATL_MASS_FRACTION(1,1:2)=0.99,0.0100,
      THICKNESS(1)=0.0280/
&SURF ID='сосна02020403',
      RGB=255,153,0,
      TEXTURE_MAP='psm_spruce.jpg',
      TEXTURE_WIDTH=0.67,
      TEXTURE_HEIGHT=2.44,
      MATL_ID(1,1)='YELLOW PINE',
      MATL_MASS_FRACTION(1,1)=1.00,
      THICKNESS(1)=0.0100/
&SURF ID='кроны дерева02020403',
      RGB=102,255,51,
      TEXTURE_MAP='psm_grass_big.jpg',
      TEXTURE_WIDTH=0.76,
      TEXTURE_HEIGHT=0.51,
      SURFACE_DENSITY=45.00,
      BACKING='EXPOSED',
      MATL_ID(1,1:2)='SPRUCE_VIRGIN','Вода',
      MATL_MASS_FRACTION(1,1:2)=0.99,0.0100,
      THICKNESS(1)=0.0280/
&SURF ID='сосна08',
      RGB=255,153,0,
      TEXTURE_MAP='psm_spruce.jpg',
      TEXTURE_WIDTH=0.67,
      TEXTURE_HEIGHT=2.44,
      MATL_ID(1,1)='YELLOW PINE',
      MATL_MASS_FRACTION(1,1)=1.00,
      THICKNESS(1)=0.0100/
&SURF ID='кроны дерева08',
      RGB=102,255,51,
      TEXTURE_MAP='psm_grass_big.jpg',
      TEXTURE_WIDTH=0.76,
      TEXTURE_HEIGHT=0.51,
      SURFACE_DENSITY=45.00,
      BACKING='EXPOSED',
      MATL_ID(1,1:2)='SPRUCE_VIRGIN','Вода',
      MATL_MASS_FRACTION(1,1:2)=0.99,0.0100,
      THICKNESS(1)=0.0280/
&SURF ID='сосна0304',
      RGB=255,153,0,
      TEXTURE_MAP='psm_spruce.jpg',
      TEXTURE_WIDTH=0.67,
      TEXTURE_HEIGHT=2.44,
      MATL_ID(1,1)='YELLOW PINE',
      MATL_MASS_FRACTION(1,1)=1.00,
      THICKNESS(1)=0.0100/
&SURF ID='кроны дерева0304',
      RGB=102,255,51,
      TEXTURE_MAP='psm_grass_big.jpg',
      TEXTURE_WIDTH=0.76,
      TEXTURE_HEIGHT=0.51,
      SURFACE_DENSITY=45.00,
      BACKING='EXPOSED',
      MATL_ID(1,1:2)='SPRUCE_VIRGIN','Вода',
      MATL_MASS_FRACTION(1,1:2)=0.99,0.0100,
      THICKNESS(1)=0.0280/
&SURF ID='сосна0404',
      RGB=255,153,0,
      TEXTURE_MAP='psm_spruce.jpg',
      TEXTURE_WIDTH=0.67,
      TEXTURE_HEIGHT=2.44,
      MATL_ID(1,1)='YELLOW PINE',
      MATL_MASS_FRACTION(1,1)=1.00,
      THICKNESS(1)=0.0100/
&SURF ID='кроны дерева0404',
      RGB=102,255,51,
      TEXTURE_MAP='psm_grass_big.jpg',
      TEXTURE_WIDTH=0.76,
      TEXTURE_HEIGHT=0.51,
      SURFACE_DENSITY=45.00,
      BACKING='EXPOSED',
      MATL_ID(1,1:2)='SPRUCE_VIRGIN','Вода',
      MATL_MASS_FRACTION(1,1:2)=0.99,0.0100,
      THICKNESS(1)=0.0280/
&SURF ID='сосна0504',
      RGB=255,153,0,
      TEXTURE_MAP='psm_spruce.jpg',
      TEXTURE_WIDTH=0.67,
      TEXTURE_HEIGHT=2.44,
      MATL_ID(1,1)='YELLOW PINE',
      MATL_MASS_FRACTION(1,1)=1.00,
      THICKNESS(1)=0.0100/
&SURF ID='кроны дерева0504',
      RGB=102,255,51,
      TEXTURE_MAP='psm_grass_big.jpg',
      TEXTURE_WIDTH=0.76,
      TEXTURE_HEIGHT=0.51,
      SURFACE_DENSITY=45.00,
      BACKING='EXPOSED',
      MATL_ID(1,1:2)='SPRUCE_VIRGIN','Вода',
      MATL_MASS_FRACTION(1,1:2)=0.99,0.0100,
      THICKNESS(1)=0.0280/
&SURF ID='сосна0205',
      RGB=255,153,0,
      TEXTURE_MAP='psm_spruce.jpg',
      TEXTURE_WIDTH=0.67,
      TEXTURE_HEIGHT=2.44,
      MATL_ID(1,1)='YELLOW PINE',
      MATL_MASS_FRACTION(1,1)=1.00,
      THICKNESS(1)=0.0100/
&SURF ID='кроны дерева0205',
      RGB=102,255,51,
      TEXTURE_MAP='psm_grass_big.jpg',
      TEXTURE_WIDTH=0.76,
      TEXTURE_HEIGHT=0.51,
      SURFACE_DENSITY=45.00,
      BACKING='EXPOSED',
      MATL_ID(1,1:2)='SPRUCE_VIRGIN','Вода',
      MATL_MASS_FRACTION(1,1:2)=0.99,0.0100,
      THICKNESS(1)=0.0280/
&SURF ID='сосна020207',
      RGB=255,153,0,
      TEXTURE_MAP='psm_spruce.jpg',
      TEXTURE_WIDTH=0.67,
      TEXTURE_HEIGHT=2.44,
      MATL_ID(1,1)='YELLOW PINE',
      MATL_MASS_FRACTION(1,1)=1.00,
      THICKNESS(1)=0.0100/
&SURF ID='кроны дерева020207',
      RGB=102,255,51,
      TEXTURE_MAP='psm_grass_big.jpg',
      TEXTURE_WIDTH=0.76,
      TEXTURE_HEIGHT=0.51,
      SURFACE_DENSITY=45.00,
      BACKING='EXPOSED',
      MATL_ID(1,1:2)='SPRUCE_VIRGIN','Вода',
      MATL_MASS_FRACTION(1,1:2)=0.99,0.0100,
      THICKNESS(1)=0.0280/
&SURF ID='сосна02020204',
      RGB=255,153,0,
      TEXTURE_MAP='psm_spruce.jpg',
      TEXTURE_WIDTH=0.67,
      TEXTURE_HEIGHT=2.44,
      MATL_ID(1,1)='YELLOW PINE',
      MATL_MASS_FRACTION(1,1)=1.00,
      THICKNESS(1)=0.0100/
&SURF ID='кроны дерева02020204',
      RGB=102,255,51,
      TEXTURE_MAP='psm_grass_big.jpg',
      TEXTURE_WIDTH=0.76,
      TEXTURE_HEIGHT=0.51,
      SURFACE_DENSITY=45.00,
      BACKING='EXPOSED',
      MATL_ID(1,1:2)='SPRUCE_VIRGIN','Вода',
      MATL_MASS_FRACTION(1,1:2)=0.99,0.0100,
      THICKNESS(1)=0.0280/
&SURF ID='сосна02020304',
      RGB=255,153,0,
      TEXTURE_MAP='psm_spruce.jpg',
      TEXTURE_WIDTH=0.67,
      TEXTURE_HEIGHT=2.44,
      MATL_ID(1,1)='YELLOW PINE',
      MATL_MASS_FRACTION(1,1)=1.00,
      THICKNESS(1)=0.0100/
&SURF ID='кроны дерева02020304',
      RGB=102,255,51,
      TEXTURE_MAP='psm_grass_big.jpg',
      TEXTURE_WIDTH=0.76,
      TEXTURE_HEIGHT=0.51,
      SURFACE_DENSITY=45.00,
      BACKING='EXPOSED',
      MATL_ID(1,1:2)='SPRUCE_VIRGIN','Вода',
      MATL_MASS_FRACTION(1,1:2)=0.99,0.0100,
      THICKNESS(1)=0.0280/
&SURF ID='сосна02020404',
      RGB=255,153,0,
      TEXTURE_MAP='psm_spruce.jpg',
      TEXTURE_WIDTH=0.67,
      TEXTURE_HEIGHT=2.44,
      MATL_ID(1,1)='YELLOW PINE',
      MATL_MASS_FRACTION(1,1)=1.00,
      THICKNESS(1)=0.0100/
&SURF ID='кроны дерева02020404',
      RGB=102,255,51,
      TEXTURE_MAP='psm_grass_big.jpg',
      TEXTURE_WIDTH=0.76,
      TEXTURE_HEIGHT=0.51,
      SURFACE_DENSITY=45.00,
      BACKING='EXPOSED',
      MATL_ID(1,1:2)='SPRUCE_VIRGIN','Вода',
      MATL_MASS_FRACTION(1,1:2)=0.99,0.0100,
      THICKNESS(1)=0.0280/
&SURF ID='сосна09',
      RGB=255,153,0,
      TEXTURE_MAP='psm_spruce.jpg',
      TEXTURE_WIDTH=0.67,
      TEXTURE_HEIGHT=2.44,
      MATL_ID(1,1)='YELLOW PINE',
      MATL_MASS_FRACTION(1,1)=1.00,
      THICKNESS(1)=0.0100/
&SURF ID='кроны дерева09',
      RGB=102,255,51,
      TEXTURE_MAP='psm_grass_big.jpg',
      TEXTURE_WIDTH=0.76,
      TEXTURE_HEIGHT=0.51,
      SURFACE_DENSITY=45.00,
      BACKING='EXPOSED',
      MATL_ID(1,1:2)='SPRUCE_VIRGIN','Вода',
      MATL_MASS_FRACTION(1,1:2)=0.99,0.0100,
      THICKNESS(1)=0.0280/
&SURF ID='сосна0305',
      RGB=255,153,0,
      TEXTURE_MAP='psm_spruce.jpg',
      TEXTURE_WIDTH=0.67,
      TEXTURE_HEIGHT=2.44,
      MATL_ID(1,1)='YELLOW PINE',
      MATL_MASS_FRACTION(1,1)=1.00,
      THICKNESS(1)=0.0100/
&SURF ID='кроны дерева0305',
      RGB=102,255,51,
      TEXTURE_MAP='psm_grass_big.jpg',
      TEXTURE_WIDTH=0.76,
      TEXTURE_HEIGHT=0.51,
      SURFACE_DENSITY=45.00,
      BACKING='EXPOSED',
      MATL_ID(1,1:2)='SPRUCE_VIRGIN','Вода',
      MATL_MASS_FRACTION(1,1:2)=0.99,0.0100,
      THICKNESS(1)=0.0280/
&SURF ID='сосна0405',
      RGB=255,153,0,
      TEXTURE_MAP='psm_spruce.jpg',
      TEXTURE_WIDTH=0.67,
      TEXTURE_HEIGHT=2.44,
      MATL_ID(1,1)='YELLOW PINE',
      MATL_MASS_FRACTION(1,1)=1.00,
      THICKNESS(1)=0.0100/
&SURF ID='кроны дерева0405',
      RGB=102,255,51,
      TEXTURE_MAP='psm_grass_big.jpg',
      TEXTURE_WIDTH=0.76,
      TEXTURE_HEIGHT=0.51,
      SURFACE_DENSITY=45.00,
      BACKING='EXPOSED',
      MATL_ID(1,1:2)='SPRUCE_VIRGIN','Вода',
      MATL_MASS_FRACTION(1,1:2)=0.99,0.0100,
      THICKNESS(1)=0.0280/
&SURF ID='сосна0505',
      RGB=255,153,0,
      TEXTURE_MAP='psm_spruce.jpg',
      TEXTURE_WIDTH=0.67,
      TEXTURE_HEIGHT=2.44,
      MATL_ID(1,1)='YELLOW PINE',
      MATL_MASS_FRACTION(1,1)=1.00,
      THICKNESS(1)=0.0100/
&SURF ID='кроны дерева0505',
      RGB=102,255,51,
      TEXTURE_MAP='psm_grass_big.jpg',
      TEXTURE_WIDTH=0.76,
      TEXTURE_HEIGHT=0.51,
      SURFACE_DENSITY=45.00,
      BACKING='EXPOSED',
      MATL_ID(1,1:2)='SPRUCE_VIRGIN','Вода',
      MATL_MASS_FRACTION(1,1:2)=0.99,0.0100,
      THICKNESS(1)=0.0280/
&SURF ID='сосна0206',
      RGB=255,153,0,
      TEXTURE_MAP='psm_spruce.jpg',
      TEXTURE_WIDTH=0.67,
      TEXTURE_HEIGHT=2.44,
      MATL_ID(1,1)='YELLOW PINE',
      MATL_MASS_FRACTION(1,1)=1.00,
      THICKNESS(1)=0.0100/
&SURF ID='кроны дерева0206',
      RGB=102,255,51,
      TEXTURE_MAP='psm_grass_big.jpg',
      TEXTURE_WIDTH=0.76,
      TEXTURE_HEIGHT=0.51,
      SURFACE_DENSITY=45.00,
      BACKING='EXPOSED',
      MATL_ID(1,1:2)='SPRUCE_VIRGIN','Вода',
      MATL_MASS_FRACTION(1,1:2)=0.99,0.0100,
      THICKNESS(1)=0.0280/
&SURF ID='сосна020208',
      RGB=255,153,0,
      TEXTURE_MAP='psm_spruce.jpg',
      TEXTURE_WIDTH=0.67,
      TEXTURE_HEIGHT=2.44,
      MATL_ID(1,1)='YELLOW PINE',
      MATL_MASS_FRACTION(1,1)=1.00,
      THICKNESS(1)=0.0100/
&SURF ID='кроны дерева020208',
      RGB=102,255,51,
      TEXTURE_MAP='psm_grass_big.jpg',
      TEXTURE_WIDTH=0.76,
      TEXTURE_HEIGHT=0.51,
      SURFACE_DENSITY=45.00,
      BACKING='EXPOSED',
      MATL_ID(1,1:2)='SPRUCE_VIRGIN','Вода',
      MATL_MASS_FRACTION(1,1:2)=0.99,0.0100,
      THICKNESS(1)=0.0280/
&SURF ID='сосна02020205',
      RGB=255,153,0,
      TEXTURE_MAP='psm_spruce.jpg',
      TEXTURE_WIDTH=0.67,
      TEXTURE_HEIGHT=2.44,
      MATL_ID(1,1)='YELLOW PINE',
      MATL_MASS_FRACTION(1,1)=1.00,
      THICKNESS(1)=0.0100/
&SURF ID='кроны дерева02020205',
      RGB=102,255,51,
      TEXTURE_MAP='psm_grass_big.jpg',
      TEXTURE_WIDTH=0.76,
      TEXTURE_HEIGHT=0.51,
      SURFACE_DENSITY=45.00,
      BACKING='EXPOSED',
      MATL_ID(1,1:2)='SPRUCE_VIRGIN','Вода',
      MATL_MASS_FRACTION(1,1:2)=0.99,0.0100,
      THICKNESS(1)=0.0280/
&SURF ID='сосна02020305',
      RGB=255,153,0,
      TEXTURE_MAP='psm_spruce.jpg',
      TEXTURE_WIDTH=0.67,
      TEXTURE_HEIGHT=2.44,
      MATL_ID(1,1)='YELLOW PINE',
      MATL_MASS_FRACTION(1,1)=1.00,
      THICKNESS(1)=0.0100/
&SURF ID='кроны дерева02020305',
      RGB=102,255,51,
      TEXTURE_MAP='psm_grass_big.jpg',
      TEXTURE_WIDTH=0.76,
      TEXTURE_HEIGHT=0.51,
      SURFACE_DENSITY=45.00,
      BACKING='EXPOSED',
      MATL_ID(1,1:2)='SPRUCE_VIRGIN','Вода',
      MATL_MASS_FRACTION(1,1:2)=0.99,0.0100,
      THICKNESS(1)=0.0280/
&SURF ID='сосна02020405',
      RGB=255,153,0,
      TEXTURE_MAP='psm_spruce.jpg',
      TEXTURE_WIDTH=0.67,
      TEXTURE_HEIGHT=2.44,
      MATL_ID(1,1)='YELLOW PINE',
      MATL_MASS_FRACTION(1,1)=1.00,
      THICKNESS(1)=0.0100/
&SURF ID='кроны дерева02020405',
      RGB=102,255,51,
      TEXTURE_MAP='psm_grass_big.jpg',
      TEXTURE_WIDTH=0.76,
      TEXTURE_HEIGHT=0.51,
      SURFACE_DENSITY=45.00,
      BACKING='EXPOSED',
      MATL_ID(1,1:2)='SPRUCE_VIRGIN','Вода',
      MATL_MASS_FRACTION(1,1:2)=0.99,0.0100,
      THICKNESS(1)=0.0280/
&SURF ID='сосна10',
      RGB=255,153,0,
      TEXTURE_MAP='psm_spruce.jpg',
      TEXTURE_WIDTH=0.67,